##ORIENTATIONS
********************
*** ORIENTATIONS ***
********************
** Orientation vectors
** 1st vector represents the fibre direction
** 2nd vector is an arbitrary vector perpendicular to the first
*Distribution Table, Name=TexGenOrientationVectors
COORD3D,COORD3D
*Distribution, Location=Element, Table=TexGenOrientationVectors, Name=TexGenOrientationVectors, Input=dryFabric.ori
*Orientation, Name=TexGenOrientations, Definition=coordinates
TexGenOrientationVectors
1, 0
##MATERIALS
*****************
*** MATERIALS ***
*****************
*Material, Name=Mat0
*Elastic
3e+09, 0.2
*Damping, alpha= 3.75e+6
*Density
1.37e-09,
*DepVar
5
*Material, Name=Mat1
*Elastic, type=ENGINEERING CONSTANTS
2e+11, 1e+10, 1e+10, 0.3, 0.4, 0.4, 5e+09, 5e+09
5e+09
*Damping, alpha= 3.75e+6
*Density
1.37e-09,
*DepVar
5

*Solid Section, ElSet=Yarn0, Material=Mat1, Orientation=TexGenOrientations, controls=HourglassEnhanced
1.0,
*Solid Section, ElSet=Yarn1, Material=Mat1, Orientation=TexGenOrientations, controls=HourglassEnhanced
1.0,
*Solid Section, ElSet=Yarn2, Material=Mat1, Orientation=TexGenOrientations, controls=HourglassEnhanced
1.0,
*Solid Section, ElSet=Yarn3, Material=Mat1, Orientation=TexGenOrientations, controls=HourglassEnhanced
1.0,
*Section Controls, Name=HourglassEnhanced, Hourglass=Enhanced, SECOND ORDER ACCURACY=YES
** Note: Additional element data are stored as a depvars:
## ELEMENTDATA
********************
*** ELEMENT DATA ***
********************
** Element data stored as a depvars 
** 1 - Element index
** 2 - Yarn Index (-1 for matrix, first yarn starting at 0) 
** 3/4 - Location (x and y cross-section coordinates of element relative to yarn centerline) 
** 5 - Volume fraction 
** 6 - Distance of element from the surface of the yarn (for yarn elements only, distance is negative) 
*Initial Conditions, Type=Solution, Input=dryFabric.eld

***************************
*** SURFACE DEFINITIONS ***
***************************
*Surface, Name=Yarn0Lower, Type=Element
205, S1
206, S1
207, S1
208, S1
369, S3
370, S3
371, S3
372, S3
373, S3
374, S3
375, S3
376, S3
377, S3
378, S3
379, S3
380, S3
381, S3
382, S3
383, S3
384, S3
** ... 1060 like lines cut
*Surface, Name=Yarn0Upper, Type=Element
1, S2
2, S2
3, S2
4, S2
369, S2
370, S2
371, S2
372, S2
373, S2
374, S2
375, S2
376, S2
377, S2
378, S2
379, S2
380, S2
381, S2
382, S2
383, S2
384, S2
** ... 1060 like lines cut
*Surface, Name=Yarn1Lower, Type=Element
*Surface, Name=Yarn1Upper, Type=Element
*Surface, Name=Yarn2Lower, Type=Element
209, S2
210, S2
211, S2
212, S2
285, S1
286, S1
287, S1
288, S1
2241, S3
2241, S2
2242, S3
2242, S2
2243, S3
2243, S2
2244, S3
2244, S2
2245, S3
2245, S2
2246, S3
2246, S2
** ... 460 like lines cut
*Surface, Name=Yarn2Upper, Type=Element
2259, S5
2260, S5
2261, S5
2262, S5
2263, S5
2264, S5
2265, S5
2266, S5
2267, S5
2268, S5
2269, S5
2270, S5
2271, S5
2272, S5
2273, S5
2274, S5
2275, S5
2276, S5
2295, S5
2296, S5
** ... 380 like lines cut
*Surface, Name=Yarn3Lower, Type=Element
2961, S3
2962, S3
2963, S3
2964, S3
2965, S3
2966, S3
2967, S3
2968, S3
2969, S3
2970, S3
2971, S3
2972, S3
2973, S3
2974, S3
2975, S3
2976, S3
2977, S3
2978, S3
2997, S3
2998, S3
** ... 380 like lines cut
*Surface, Name=Yarn3Upper, Type=Element
289, S2
290, S2
291, S2
292, S2
365, S1
366, S1
367, S1
368, S1
2961, S2
2962, S2
2963, S2
2964, S2
2965, S2
2966, S2
2967, S2
2968, S2
2969, S2
2970, S2
2971, S2
2972, S2
** ... 460 like lines cut


##INTERACTION
************
*** INTERACTION PROPERTIES ***
************
*Surface Interaction, name=YARN
*Friction
0.112,
*Surface Behavior, pressure-overclosure=HARD



***************************
*** CONTACT DEFINITIONS ***
***************************
*Contact Pair, Interaction=Yarn
Yarn0Upper, Yarn2Lower
*Contact Pair, Interaction=Yarn
Yarn1Upper, Yarn3Lower
*Contact Pair, Interaction=Yarn
Yarn2Upper, Yarn1Lower
*Contact Pair, Interaction=Yarn
Yarn3Upper, Yarn0Lower



