*Heading
File generated by TexGen v3.13.1
************
*** MESH ***
************
*Node
1, -0.406926, 0.275618, 0.0667846
2, -0.408046, 0.245711, 0.0590484
3, -0.408791, 0.215237, 0.0539033
4, -0.409422, 0.184634, 0.049549
5, -0.40997, 0.153952, 0.0457613
6, -0.41044, 0.123206, 0.0425156
7, -0.410828, 0.0924055, 0.0398375
8, -0.41108, 0.0615359, 0.0380993
9, -0.411247, 0.0306384, 0.0369405
10, -0.411342, -0.00027413, 0.0362893
11, -0.411276, -0.0311904, 0.0367431
12, -0.411158, -0.062099, 0.0375601
13, -0.410983, -0.0929947, 0.0387628
14, -0.410682, -0.123843, 0.0408417
15, -0.41029, -0.154641, 0.0435517
16, -0.409787, -0.18536, 0.0470297
17, -0.409131, -0.21594, 0.0515569
18, -0.408241, -0.246229, 0.0577028
19, -0.406928, -0.275759, 0.0667735
20, -0.404189, 0.29993, 0.0856895
** ... 5585 like lines cut
*Element, Type=C3D6
1, 60, 80, 79, 1, 21, 20
2, 78, 99, 98, 19, 40, 39
3, 79, 80, 100, 20, 21, 41
4, 98, 99, 118, 39, 40, 59
5, 119, 139, 138, 60, 80, 79
6, 137, 158, 157, 78, 99, 98
7, 138, 139, 159, 79, 80, 100
8, 157, 158, 177, 98, 99, 118
9, 178, 198, 197, 119, 139, 138
10, 196, 217, 216, 137, 158, 157
11, 197, 198, 218, 138, 139, 159
12, 216, 217, 236, 157, 158, 177
13, 237, 257, 256, 178, 198, 197
14, 255, 276, 275, 196, 217, 216
15, 256, 257, 277, 197, 198, 218
16, 275, 276, 295, 216, 217, 236
17, 296, 316, 315, 237, 257, 256
18, 314, 335, 334, 255, 276, 275
19, 315, 316, 336, 256, 257, 277
20, 334, 335, 354, 275, 276, 295
** ... 348 like lines cut
*Element, Type=C3D8R
369, 60, 61, 81, 80, 1, 2, 22, 21
370, 61, 62, 82, 81, 2, 3, 23, 22
371, 62, 63, 83, 82, 3, 4, 24, 23
372, 63, 64, 84, 83, 4, 5, 25, 24
373, 64, 65, 85, 84, 5, 6, 26, 25
374, 65, 66, 86, 85, 6, 7, 27, 26
375, 66, 67, 87, 86, 7, 8, 28, 27
376, 67, 68, 88, 87, 8, 9, 29, 28
377, 68, 69, 89, 88, 9, 10, 30, 29
378, 69, 70, 90, 89, 10, 11, 31, 30
379, 70, 71, 91, 90, 11, 12, 32, 31
380, 71, 72, 92, 91, 12, 13, 33, 32
381, 72, 73, 93, 92, 13, 14, 34, 33
382, 73, 74, 94, 93, 14, 15, 35, 34
383, 74, 75, 95, 94, 15, 16, 36, 35
384, 75, 76, 96, 95, 16, 17, 37, 36
385, 76, 77, 97, 96, 17, 18, 38, 37
386, 77, 78, 98, 97, 18, 19, 39, 38
387, 80, 81, 101, 100, 21, 22, 42, 41
388, 81, 82, 102, 101, 22, 23, 43, 42
** ... 3292 like lines cut
********************
*** ORIENTATIONS ***
********************
** Orientation vectors
** 1st vector represents the fibre direction
** 2nd vector is an arbitrary vector perpendicular to the first
*Distribution Table, Name=TexGenOrientationVectors
COORD3D,COORD3D
*Distribution, Location=Element, Table=TexGenOrientationVectors, Name=TexGenOrientationVectors, Input=dryFabric.ori
*Orientation, Name=TexGenOrientations, Definition=coordinates
TexGenOrientationVectors
1, 0
********************
*** ELEMENT SETS ***
********************
** TexGen generates a number of element sets:
** All - Contains all elements
** Matrix - Contains all elements belonging to the matrix
** YarnX - Where X represents the yarn index
*ElSet, ElSet=All, Generate
1, 3680, 1
*ElSet, ElSet=Yarn0
1, 2, 3, 4, 5, 6, 7, 8, 9, 10, 11, 12, 13, 14, 15, 16
17, 18, 19, 20, 21, 22, 23, 24, 25, 26, 27, 28, 29, 30, 31, 32
33, 34, 35, 36, 37, 38, 39, 40, 41, 42, 43, 44, 45, 46, 47, 48
49, 50, 51, 52, 53, 54, 55, 56, 57, 58, 59, 60, 61, 62, 63, 64
65, 66, 67, 68, 69, 70, 71, 72, 73, 74, 75, 76, 77, 78, 79, 80
81, 82, 83, 84, 85, 86, 87, 88, 89, 90, 91, 92, 93, 94, 95, 96
97, 98, 99, 100, 101, 102, 103, 104, 105, 106, 107, 108, 109, 110, 111, 112
113, 114, 115, 116, 117, 118, 119, 120, 121, 122, 123, 124, 125, 126, 127, 128
129, 130, 131, 132, 133, 134, 135, 136, 137, 138, 139, 140, 141, 142, 143, 144
145, 146, 147, 148, 149, 150, 151, 152, 153, 154, 155, 156, 157, 158, 159, 160
161, 162, 163, 164, 165, 166, 167, 168, 169, 170, 171, 172, 173, 174, 175, 176
177, 178, 179, 180, 181, 182, 183, 184, 185, 186, 187, 188, 189, 190, 191, 192
193, 194, 195, 196, 197, 198, 199, 200, 201, 202, 203, 204, 205, 206, 207, 208
369, 370, 371, 372, 373, 374, 375, 376, 377, 378, 379, 380, 381, 382, 383, 384
385, 386, 387, 388, 389, 390, 391, 392, 393, 394, 395, 396, 397, 398, 399, 400
401, 402, 403, 404, 405, 406, 407, 408, 409, 410, 411, 412, 413, 414, 415, 416
417, 418, 419, 420, 421, 422, 423, 424, 425, 426, 427, 428, 429, 430, 431, 432
433, 434, 435, 436, 437, 438, 439, 440, 441, 442, 443, 444, 445, 446, 447, 448
449, 450, 451, 452, 453, 454, 455, 456, 457, 458, 459, 460, 461, 462, 463, 464
465, 466, 467, 468, 469, 470, 471, 472, 473, 474, 475, 476, 477, 478, 479, 480
** ... 110 like lines cut
*ElSet, ElSet=Yarn2
209, 210, 211, 212, 213, 214, 215, 216, 217, 218, 219, 220, 221, 222, 223, 224
225, 226, 227, 228, 229, 230, 231, 232, 233, 234, 235, 236, 237, 238, 239, 240
241, 242, 243, 244, 245, 246, 247, 248, 249, 250, 251, 252, 253, 254, 255, 256
257, 258, 259, 260, 261, 262, 263, 264, 265, 266, 267, 268, 269, 270, 271, 272
273, 274, 275, 276, 277, 278, 279, 280, 281, 282, 283, 284, 285, 286, 287, 288
2241, 2242, 2243, 2244, 2245, 2246, 2247, 2248, 2249, 2250, 2251, 2252, 2253, 2254, 2255, 2256
2257, 2258, 2259, 2260, 2261, 2262, 2263, 2264, 2265, 2266, 2267, 2268, 2269, 2270, 2271, 2272
2273, 2274, 2275, 2276, 2277, 2278, 2279, 2280, 2281, 2282, 2283, 2284, 2285, 2286, 2287, 2288
2289, 2290, 2291, 2292, 2293, 2294, 2295, 2296, 2297, 2298, 2299, 2300, 2301, 2302, 2303, 2304
2305, 2306, 2307, 2308, 2309, 2310, 2311, 2312, 2313, 2314, 2315, 2316, 2317, 2318, 2319, 2320
2321, 2322, 2323, 2324, 2325, 2326, 2327, 2328, 2329, 2330, 2331, 2332, 2333, 2334, 2335, 2336
2337, 2338, 2339, 2340, 2341, 2342, 2343, 2344, 2345, 2346, 2347, 2348, 2349, 2350, 2351, 2352
2353, 2354, 2355, 2356, 2357, 2358, 2359, 2360, 2361, 2362, 2363, 2364, 2365, 2366, 2367, 2368
2369, 2370, 2371, 2372, 2373, 2374, 2375, 2376, 2377, 2378, 2379, 2380, 2381, 2382, 2383, 2384
2385, 2386, 2387, 2388, 2389, 2390, 2391, 2392, 2393, 2394, 2395, 2396, 2397, 2398, 2399, 2400
2401, 2402, 2403, 2404, 2405, 2406, 2407, 2408, 2409, 2410, 2411, 2412, 2413, 2414, 2415, 2416
2417, 2418, 2419, 2420, 2421, 2422, 2423, 2424, 2425, 2426, 2427, 2428, 2429, 2430, 2431, 2432
2433, 2434, 2435, 2436, 2437, 2438, 2439, 2440, 2441, 2442, 2443, 2444, 2445, 2446, 2447, 2448
2449, 2450, 2451, 2452, 2453, 2454, 2455, 2456, 2457, 2458, 2459, 2460, 2461, 2462, 2463, 2464
2465, 2466, 2467, 2468, 2469, 2470, 2471, 2472, 2473, 2474, 2475, 2476, 2477, 2478, 2479, 2480
** ... 30 like lines cut
*ElSet, ElSet=Yarn3
289, 290, 291, 292, 293, 294, 295, 296, 297, 298, 299, 300, 301, 302, 303, 304
305, 306, 307, 308, 309, 310, 311, 312, 313, 314, 315, 316, 317, 318, 319, 320
321, 322, 323, 324, 325, 326, 327, 328, 329, 330, 331, 332, 333, 334, 335, 336
337, 338, 339, 340, 341, 342, 343, 344, 345, 346, 347, 348, 349, 350, 351, 352
353, 354, 355, 356, 357, 358, 359, 360, 361, 362, 363, 364, 365, 366, 367, 368
2961, 2962, 2963, 2964, 2965, 2966, 2967, 2968, 2969, 2970, 2971, 2972, 2973, 2974, 2975, 2976
2977, 2978, 2979, 2980, 2981, 2982, 2983, 2984, 2985, 2986, 2987, 2988, 2989, 2990, 2991, 2992
2993, 2994, 2995, 2996, 2997, 2998, 2999, 3000, 3001, 3002, 3003, 3004, 3005, 3006, 3007, 3008
3009, 3010, 3011, 3012, 3013, 3014, 3015, 3016, 3017, 3018, 3019, 3020, 3021, 3022, 3023, 3024
3025, 3026, 3027, 3028, 3029, 3030, 3031, 3032, 3033, 3034, 3035, 3036, 3037, 3038, 3039, 3040
3041, 3042, 3043, 3044, 3045, 3046, 3047, 3048, 3049, 3050, 3051, 3052, 3053, 3054, 3055, 3056
3057, 3058, 3059, 3060, 3061, 3062, 3063, 3064, 3065, 3066, 3067, 3068, 3069, 3070, 3071, 3072
3073, 3074, 3075, 3076, 3077, 3078, 3079, 3080, 3081, 3082, 3083, 3084, 3085, 3086, 3087, 3088
3089, 3090, 3091, 3092, 3093, 3094, 3095, 3096, 3097, 3098, 3099, 3100, 3101, 3102, 3103, 3104
3105, 3106, 3107, 3108, 3109, 3110, 3111, 3112, 3113, 3114, 3115, 3116, 3117, 3118, 3119, 3120
3121, 3122, 3123, 3124, 3125, 3126, 3127, 3128, 3129, 3130, 3131, 3132, 3133, 3134, 3135, 3136
3137, 3138, 3139, 3140, 3141, 3142, 3143, 3144, 3145, 3146, 3147, 3148, 3149, 3150, 3151, 3152
3153, 3154, 3155, 3156, 3157, 3158, 3159, 3160, 3161, 3162, 3163, 3164, 3165, 3166, 3167, 3168
3169, 3170, 3171, 3172, 3173, 3174, 3175, 3176, 3177, 3178, 3179, 3180, 3181, 3182, 3183, 3184
3185, 3186, 3187, 3188, 3189, 3190, 3191, 3192, 3193, 3194, 3195, 3196, 3197, 3198, 3199, 3200
** ... 30 like lines cut
*****************
*** MATERIALS ***
*****************
*Material, Name=Mat0
*Elastic
3e+09, 0.2
*Damping, alpha= 3.75e+6
*Density
1.37e-09,
*DepVar
5
*Material, Name=Mat1
*Elastic, type=ENGINEERING CONSTANTS
2e+11, 1e+10, 1e+10, 0.3, 0.4, 0.4, 5e+09, 5e+09
5e+09
*Damping, alpha= 3.75e+6
*Density
1.37e-09,
*DepVar
5
*Solid Section, ElSet=Yarn0, Material=Mat1, Orientation=TexGenOrientations, controls=HourglassEnhanced
1.0,
*Solid Section, ElSet=Yarn1, Material=Mat1, Orientation=TexGenOrientations, controls=HourglassEnhanced
1.0,
*Solid Section, ElSet=Yarn2, Material=Mat1, Orientation=TexGenOrientations, controls=HourglassEnhanced
1.0,
*Solid Section, ElSet=Yarn3, Material=Mat1, Orientation=TexGenOrientations, controls=HourglassEnhanced
1.0,
*Section Controls, Name=HourglassEnhanced, Hourglass=Enhanced, SECOND ORDER ACCURACY=YES
** Note: Additional element data are stored as a depvars:
********************
*** ELEMENT DATA ***
********************
** Element data stored as a depvars 
** 1 - Element index
** 2 - Yarn Index (-1 for matrix, first yarn starting at 0) 
** 3/4 - Location (x and y cross-section coordinates of element relative to yarn centerline) 
** 5 - Volume fraction 
** 6 - Distance of element from the surface of the yarn (for yarn elements only, distance is negative) 
*Initial Conditions, Type=Solution, Input=dryFabric.eld
***************************
*** SURFACE DEFINITIONS ***
***************************
*Surface, Name=Yarn0Lower, Type=Element
205, S1
206, S1
207, S1
208, S1
369, S3
370, S3
371, S3
372, S3
373, S3
374, S3
375, S3
376, S3
377, S3
378, S3
379, S3
380, S3
381, S3
382, S3
383, S3
384, S3
** ... 1060 like lines cut
*Surface, Name=Yarn0Upper, Type=Element
1, S2
2, S2
3, S2
4, S2
369, S2
370, S2
371, S2
372, S2
373, S2
374, S2
375, S2
376, S2
377, S2
378, S2
379, S2
380, S2
381, S2
382, S2
383, S2
384, S2
** ... 1060 like lines cut
*Surface, Name=Yarn1Lower, Type=Element
*Surface, Name=Yarn1Upper, Type=Element
*Surface, Name=Yarn2Lower, Type=Element
209, S2
210, S2
211, S2
212, S2
285, S1
286, S1
287, S1
288, S1
2241, S3
2241, S2
2242, S3
2242, S2
2243, S3
2243, S2
2244, S3
2244, S2
2245, S3
2245, S2
2246, S3
2246, S2
** ... 460 like lines cut
*Surface, Name=Yarn2Upper, Type=Element
2259, S5
2260, S5
2261, S5
2262, S5
2263, S5
2264, S5
2265, S5
2266, S5
2267, S5
2268, S5
2269, S5
2270, S5
2271, S5
2272, S5
2273, S5
2274, S5
2275, S5
2276, S5
2295, S5
2296, S5
** ... 380 like lines cut
*Surface, Name=Yarn3Lower, Type=Element
2961, S3
2962, S3
2963, S3
2964, S3
2965, S3
2966, S3
2967, S3
2968, S3
2969, S3
2970, S3
2971, S3
2972, S3
2973, S3
2974, S3
2975, S3
2976, S3
2977, S3
2978, S3
2997, S3
2998, S3
** ... 380 like lines cut
*Surface, Name=Yarn3Upper, Type=Element
289, S2
290, S2
291, S2
292, S2
365, S1
366, S1
367, S1
368, S1
2961, S2
2962, S2
2963, S2
2964, S2
2965, S2
2966, S2
2967, S2
2968, S2
2969, S2
2970, S2
2971, S2
2972, S2
** ... 460 like lines cut
************
*** INTERACTION PROPERTIES ***
************
*Surface Interaction, name=YARN
*Friction
0.112,
*Surface Behavior, pressure-overclosure=HARD
************
*** STEP ***
************
*Step, NLGeom=Yes
*Dynamic, Explicit
,2.5e-5
*Bulk Viscosity
0.06, 1.2
***************************
*** CONTACT DEFINITIONS ***
***************************
*Contact Pair, Interaction=Yarn
Yarn0Upper, Yarn2Lower
*Contact Pair, Interaction=Yarn
Yarn1Upper, Yarn3Lower
*Contact Pair, Interaction=Yarn
Yarn2Upper, Yarn1Lower
*Contact Pair, Interaction=Yarn
Yarn3Upper, Yarn0Lower
*Output, History, Variable=PRESELECT
*Output, Field, Variable=PRESELECT
*Element Output
SDV
*Boundary
*Amplitude, name=Amp-1
0., 0., 2.5e-05, 1.
*Boundary, amplitude=Amp-1
*** Constrain the nodes closest to the geometrical center of each yarns
1564, 1, 1, 0
1564, 2, 2, 0
1564, 3, 3, 0
3747, 1, 1, 0
3747, 2, 2, 0
3747, 3, 3, 0
4986, 1, 1, 0
4986, 2, 2, 0
4986, 3, 3, 0
*** Apply the repeat vector constraints
Dummy0, 1, 1, 0
Dummy0, 2, 2, 0
Dummy0, 3, 3, 0
Dummy1, 1, 1, 0
Dummy1, 2, 2, 0
Dummy1, 3, 3, 0
*End Step
